152.****
     RDKit          3D

 26 25  0  0  0  0  0  0  0  0999 V2000
    2.6720   -0.1270    0.1120 C   0  0  0  0  0  0  0  0  0  0  0  0
    2.5610    0.9230    0.6990 O   0  0  0  0  0  1  0  0  0  0  0  0
    3.8890   -0.6540   -0.0980 O   0  0  0  0  0  0  0  0  0  0  0  0
    1.4440   -0.8460   -0.3850 C   0  0  0  0  0  0  0  0  0  0  0  0
    0.1970   -0.0390   -0.0180 C   0  0  1  0  0  0  0  0  0  0  0  0
    0.2140    1.2080   -0.7160 O   0  0  0  0  0  0  0  0  0  0  0  0
   -1.0540   -0.8260   -0.4100 C   0  0  0  0  0  0  0  0  0  0  0  0
   -2.3570    1.1830   -0.5480 C   0  0  0  0  0  0  0  0  0  0  0  0
   -2.1350    0.0390    1.5490 C   0  0  0  0  0  0  0  0  0  0  0  0
   -3.4430   -0.9300   -0.2130 C   0  0  0  0  0  0  0  0  0  0  0  0
   -2.2470   -0.1340    0.0940 N   0  0  0  0  0  4  0  0  0  0  0  0
    0.1870    0.1460    1.0560 H   0  0  0  0  0  0  0  0  0  0  0  0
    1.0080    1.6790   -0.4500 H   0  0  0  0  0  0  0  0  0  0  0  0
    1.3880   -1.8320    0.0770 H   0  0  0  0  0  0  0  0  0  0  0  0
    1.5000   -0.9550   -1.4680 H   0  0  0  0  0  0  0  0  0  0  0  0
   -1.0040   -1.8260    0.0220 H   0  0  0  0  0  0  0  0  0  0  0  0
   -1.1100   -0.9020   -1.4960 H   0  0  0  0  0  0  0  0  0  0  0  0
   -1.4700    1.7730   -0.3200 H   0  0  0  0  0  0  0  0  0  0  0  0
   -3.2420    1.6970   -0.1730 H   0  0  0  0  0  0  0  0  0  0  0  0
   -2.4410    1.0550   -1.6270 H   0  0  0  0  0  0  0  0  0  0  0  0
   -1.2480    0.6290    1.7770 H   0  0  0  0  0  0  0  0  0  0  0  0
   -2.0540   -0.9380    2.0260 H   0  0  0  0  0  0  0  0  0  0  0  0
   -3.0200    0.5540    1.9230 H   0  0  0  0  0  0  0  0  0  0  0  0
   -3.5270   -1.0590   -1.2920 H   0  0  0  0  0  0  0  0  0  0  0  0
   -4.3280   -0.4150    0.1610 H   0  0  0  0  0  0  0  0  0  0  0  0
   -3.3620   -1.9070    0.2640 H   0  0  0  0  0  0  0  0  0  0  0  0
  1  2  1  0
  1  3  2  0
  1  4  1  0
  4  5  1  0
  4 14  1  0
  4 15  1  0
  5  6  1  0
  5  7  1  0
  5 12  1  1
  6 13  1  0
  7 11  1  0
  7 16  1  0
  7 17  1  0
  8 11  1  0
  8 18  1  0
  8 19  1  0
  8 20  1  0
  9 11  1  0
  9 21  1  0
  9 22  1  0
  9 23  1  0
 10 11  1  0
 10 24  1  0
 10 25  1  0
 10 26  1  0
M  CHG  2   2  -1  11   1
M  END
