ADN.****
  PyMOL2.4          3D                             0

 32 34  0  0  1  0  0  0  0  0999 V2000
   -2.2240    0.9920   -4.3180 O   0  0  0  0  0  0  0  0  0  0  0  0
   -2.6580    1.0740   -3.4660 H   0  0  0  0  0  0  0  0  0  0  0  0
   -1.2280   -0.0260   -4.2000 C   0  0  0  0  0  0  0  0  0  0  0  0
   -0.7150   -0.1440   -5.1540 H   0  0  0  0  0  0  0  0  0  0  0  0
   -1.7020   -0.9680   -3.9230 H   0  0  0  0  0  0  0  0  0  0  0  0
   -0.2170    0.3720   -3.1230 C   0  0  1  0  0  0  0  0  0  0  0  0
    0.2400    1.3060   -3.4500 H   0  0  0  0  0  0  0  0  0  0  0  0
   -0.8710    0.5010   -1.8420 O   0  0  0  0  0  0  0  0  0  0  0  0
    0.8260   -0.7480   -2.9210 C   0  0  1  0  0  0  0  0  0  0  0  0
    0.4770   -1.7160   -3.2800 H   0  0  0  0  0  0  0  0  0  0  0  0
    2.0230   -0.4550   -3.6450 O   0  0  0  0  0  0  0  0  0  0  0  0
    2.3450    0.3970   -3.3410 H   0  0  0  0  0  0  0  0  0  0  0  0
    1.0970   -0.7400   -1.3980 C   0  0  1  0  0  0  0  0  0  0  0  0
    0.8970   -1.7030   -0.9280 H   0  0  0  0  0  0  0  0  0  0  0  0
    2.4700   -0.4440   -1.1360 O   0  0  0  0  0  0  0  0  0  0  0  0
    2.9970   -1.1470   -1.5220 H   0  0  0  0  0  0  0  0  0  0  0  0
    0.1820    0.3820   -0.8620 C   0  0  2  0  0  0  0  0  0  0  0  0
    0.7190    1.3200   -0.7200 H   0  0  0  0  0  0  0  0  0  0  0  0
   -0.3720    0.0090    0.4400 N   0  0  0  0  0  0  0  0  0  0  0  0
   -1.5250   -0.6850    0.6570 C   0  0  0  0  0  0  0  0  0  0  0  0
   -2.1820   -1.0510   -0.1170 H   0  0  0  0  0  0  0  0  0  0  0  0
   -1.7170   -0.8410    1.9350 N   0  0  0  0  0  0  0  0  0  0  0  0
   -0.6990   -0.2620    2.6170 C   0  0  0  0  0  0  0  0  0  0  0  0
   -0.3830   -0.1090    3.9780 C   0  0  0  0  0  0  0  0  0  0  0  0
   -1.2060   -0.6320    4.9590 N   0  0  0  0  0  0  0  0  0  0  0  0
   -0.9650   -0.5200    5.9330 H   0  0  0  0  0  0  0  0  0  0  0  0
   -2.0480   -1.1260    4.7010 H   0  0  0  0  0  0  0  0  0  0  0  0
    0.7280    0.5430    4.3000 N   0  0  0  0  0  0  0  0  0  0  0  0
    1.5200    1.0450    3.3700 C   0  0  0  0  0  0  0  0  0  0  0  0
    2.4140    1.5680    3.6760 H   0  0  0  0  0  0  0  0  0  0  0  0
    1.2610    0.9320    2.0840 N   0  0  0  0  0  0  0  0  0  0  0  0
    0.1720    0.2950    1.6670 C   0  0  0  0  0  0  0  0  0  0  0  0
  1  2  1  0  0  0  0
  1  3  1  0  0  0  0
  3  4  1  0  0  0  0
  3  5  1  0  0  0  0
  3  6  1  0  0  0  0
  6  7  1  6  0  0  0
  6  8  1  0  0  0  0
  6  9  1  0  0  0  0
  8 17  1  0  0  0  0
  9 10  1  6  0  0  0
  9 11  1  0  0  0  0
  9 13  1  0  0  0  0
 11 12  1  0  0  0  0
 13 14  1  1  0  0  0
 13 15  1  0  0  0  0
 13 17  1  0  0  0  0
 15 16  1  0  0  0  0
 17 18  1  1  0  0  0
 17 19  1  0  0  0  0
 19 20  1  0  0  0  0
 19 32  1  0  0  0  0
 20 21  1  0  0  0  0
 20 22  2  0  0  0  0
 22 23  1  0  0  0  0
 23 24  1  0  0  0  0
 23 32  2  0  0  0  0
 24 25  1  0  0  0  0
 24 28  2  0  0  0  0
 25 26  1  0  0  0  0
 25 27  1  0  0  0  0
 28 29  1  0  0  0  0
 29 30  1  0  0  0  0
 29 31  2  0  0  0  0
 31 32  1  0  0  0  0
M  END
$$$$
