ADP.****
  PyMOL2.5          3D                             0

 39 41  0  0  0  0  0  0  0  0999 V2000
    1.1620   -0.2210   -5.6850 P   0  0  0  0  0  0  0  0  0  0  0  0
    1.7250    1.1330   -5.4920 O   0  0  0  0  0  0  0  0  0  0  0  0
    2.1900   -1.1120   -6.5460 O   0  5  0  0  0  0  0  0  0  0  0  0
   -0.2400   -0.1130   -6.4670 O   0  5  0  0  0  0  0  0  0  0  0  0
   -0.1050    0.0250   -3.4460 P   0  0  0  0  0  0  0  0  0  0  0  0
    0.4760    1.3760   -3.2880 O   0  0  0  0  0  0  0  0  0  0  0  0
   -1.4870    0.1290   -4.2660 O   0  5  0  0  0  0  0  0  0  0  0  0
    0.9250   -0.9130   -4.2500 O   0  0  0  0  0  0  0  0  0  0  0  0
   -0.3890   -0.6090   -1.9940 O   0  0  0  0  0  0  0  0  0  0  0  0
   -1.3070    0.2640   -1.3330 C   0  0  0  0  0  0  0  0  0  0  0  0
   -2.2276    0.3296   -1.9130 H   0  0  0  0  0  0  0  0  0  0  0  0
   -0.8637    1.2556   -1.2417 H   0  0  0  0  0  0  0  0  0  0  0  0
   -1.6200   -0.2840    0.0590 C   0  0  0  0  0  0  0  0  0  0  0  0
   -2.0740   -1.2645   -0.0842 H   0  0  0  0  0  0  0  0  0  0  0  0
   -0.4170   -0.3480    0.8570 O   0  0  0  0  0  0  0  0  0  0  0  0
   -2.5500    0.6830    0.8250 C   0  0  0  0  0  0  0  0  0  0  0  0
   -2.5264    1.6959    0.4231 H   0  0  0  0  0  0  0  0  0  0  0  0
   -3.9070    0.2450    0.7390 O   0  0  0  0  0  0  0  0  0  0  0  0
   -4.1612    0.2674   -0.1865 H   0  0  0  0  0  0  0  0  0  0  0  0
   -2.0470    0.6110    2.2860 C   0  0  0  0  0  0  0  0  0  0  0  0
   -1.7501    1.5831    2.6795 H   0  0  0  0  0  0  0  0  0  0  0  0
   -3.0800    0.1290    3.1480 O   0  0  0  0  0  0  0  0  0  0  0  0
   -3.8678    0.0021    2.6142 H   0  0  0  0  0  0  0  0  0  0  0  0
   -0.8710   -0.3880    2.2270 C   0  0  0  0  0  0  0  0  0  0  0  0
   -1.1686   -1.3911    2.5324 H   0  0  0  0  0  0  0  0  0  0  0  0
    0.2010    0.0310    3.1320 N   0  0  0  0  0  0  0  0  0  0  0  0
    1.2310    0.8700    2.8270 C   0  0  0  0  0  0  0  0  0  0  0  0
    1.3861    1.3360    1.8652 H   0  0  0  0  0  0  0  0  0  0  0  0
    2.0000    1.0270    3.8650 N   0  0  0  0  0  0  0  0  0  0  0  0
    1.5090    0.3050    4.9020 C   0  0  0  0  0  0  0  0  0  0  0  0
    1.9100    0.0870    6.2310 C   0  0  0  0  0  0  0  0  0  0  0  0
    3.0440    0.6970    6.7380 N   0  0  0  0  0  0  0  0  0  0  0  0
    3.3186    0.5355    7.6964 H   0  0  0  0  0  0  0  0  0  0  0  0
    3.5970    1.3037    6.1496 H   0  0  0  0  0  0  0  0  0  0  0  0
    1.1710   -0.7140    6.9910 N   0  0  0  0  0  0  0  0  0  0  0  0
    0.0880   -1.3000    6.5160 C   0  0  0  0  0  0  0  0  0  0  0  0
   -0.4838   -1.9430    7.1686 H   0  0  0  0  0  0  0  0  0  0  0  0
   -0.3210   -1.1300    5.2770 N   0  0  0  0  0  0  0  0  0  0  0  0
    0.3530   -0.3460    4.4420 C   0  0  0  0  0  0  0  0  0  0  0  0
  1  8  1  0  0  0  0
  5  8  1  0  0  0  0
  5  9  1  0  0  0  0
  9 10  1  0  0  0  0
 10 11  1  0  0  0  0
 10 12  1  0  0  0  0
 10 13  1  0  0  0  0
 13 14  1  0  0  0  0
 13 15  1  0  0  0  0
 13 16  1  0  0  0  0
 15 24  1  0  0  0  0
 16 17  1  0  0  0  0
 16 18  1  0  0  0  0
 16 20  1  0  0  0  0
 18 19  1  0  0  0  0
 20 21  1  0  0  0  0
 20 22  1  0  0  0  0
 20 24  1  0  0  0  0
 22 23  1  0  0  0  0
 24 25  1  0  0  0  0
 24 26  1  0  0  0  0
 26 27  1  0  0  0  0
 26 39  1  0  0  0  0
 27 28  1  0  0  0  0
 27 29  2  0  0  0  0
 29 30  1  0  0  0  0
 31 32  1  0  0  0  0
 32 33  1  0  0  0  0
 32 34  1  0  0  0  0
 36 37  1  0  0  0  0
 30 39  2  0  0  0  0
 31 35  2  0  0  0  0
 36 38  2  0  0  0  0
 38 39  1  0  0  0  0
 30 31  1  0  0  0  0
 35 36  1  0  0  0  0
  1  2  2  0  0  0  0
  5  6  2  0  0  0  0
  5  7  1  0  0  0  0
  1  4  1  0  0  0  0
  1  3  1  0  0  0  0
M  END
$$$$
