ATP.****
  PyMOL2.5          3D                             0

 43 45  0  0  0  0  0  0  0  0999 V2000
    1.2000   -0.2260   -6.8500 P   0  0  0  0  0  0  0  0  0  0  0  0
    1.7400    1.1400   -6.6720 O   0  0  0  0  0  0  0  0  0  0  0  0
    2.1230   -1.0360   -7.8910 O   0  5  0  0  0  0  0  0  0  0  0  0
   -0.3020   -0.1390   -7.4210 O   0  5  0  0  0  0  0  0  0  0  0  0
    0.2550   -0.1300   -4.4460 P   0  0  0  0  0  0  0  0  0  0  0  0
    0.8100    1.2340   -4.3040 O   0  0  0  0  0  0  0  0  0  0  0  0
   -1.2310   -0.0440   -5.0570 O   0  5  0  0  0  0  0  0  0  0  0  0
    1.1920   -0.9900   -5.4330 O   0  0  0  0  0  0  0  0  0  0  0  0
   -0.7450    0.0680   -2.0710 P   0  0  0  0  0  0  0  0  0  0  0  0
   -2.0970    0.1430   -2.6690 O   0  0  0  0  0  0  0  0  0  0  0  0
   -0.1250    1.5490   -1.9570 O   0  5  0  0  0  0  0  0  0  0  0  0
    0.2030   -0.8400   -3.0020 O   0  0  0  0  0  0  0  0  0  0  0  0
   -0.8440   -0.5870   -0.6040 O   0  0  0  0  0  0  0  0  0  0  0  0
   -1.6940    0.2600    0.1700 C   0  0  0  0  0  0  0  0  0  0  0  0
   -2.6774    0.3126   -0.2973 H   0  0  0  0  0  0  0  0  0  0  0  0
   -1.2620    1.2594    0.2209 H   0  0  0  0  0  0  0  0  0  0  0  0
   -1.8310   -0.3090    1.5840 C   0  0  0  0  0  0  0  0  0  0  0  0
   -2.2794   -1.2974    1.4832 H   0  0  0  0  0  0  0  0  0  0  0  0
   -0.5420   -0.3550    2.2340 O   0  0  0  0  0  0  0  0  0  0  0  0
   -2.6830    0.6300    2.4650 C   0  0  0  0  0  0  0  0  0  0  0  0
   -2.7264    1.6468    2.0746 H   0  0  0  0  0  0  0  0  0  0  0  0
   -4.0330    0.1650    2.5340 O   0  0  0  0  0  0  0  0  0  0  0  0
   -4.3946    0.1906    1.6451 H   0  0  0  0  0  0  0  0  0  0  0  0
   -2.0110    0.5550    3.8560 C   0  0  0  0  0  0  0  0  0  0  0  0
   -1.6896    1.5293    4.2243 H   0  0  0  0  0  0  0  0  0  0  0  0
   -2.9260    0.0430    4.8270 O   0  0  0  0  0  0  0  0  0  0  0  0
   -3.7683   -0.0953    4.3876 H   0  0  0  0  0  0  0  0  0  0  0  0
   -0.8300   -0.4180    3.6470 C   0  0  0  0  0  0  0  0  0  0  0  0
   -1.0687   -1.4304    3.9730 H   0  0  0  0  0  0  0  0  0  0  0  0
    0.3320    0.0150    4.4250 N   0  0  0  0  0  0  0  0  0  0  0  0
    1.3020    0.8790    4.0120 C   0  0  0  0  0  0  0  0  0  0  0  0
    1.3339    1.3579    3.0445 H   0  0  0  0  0  0  0  0  0  0  0  0
    2.1840    1.0420    4.9550 N   0  0  0  0  0  0  0  0  0  0  0  0
    1.8330    0.3000    6.0330 C   0  0  0  0  0  0  0  0  0  0  0  0
    2.3910    0.0770    7.3030 C   0  0  0  0  0  0  0  0  0  0  0  0
    3.5640    0.7060    7.6810 N   0  0  0  0  0  0  0  0  0  0  0  0
    3.9525    0.5410    8.5986 H   0  0  0  0  0  0  0  0  0  0  0  0
    4.0318    1.3301    7.0393 H   0  0  0  0  0  0  0  0  0  0  0  0
    1.7630   -0.7470    8.1350 N   0  0  0  0  0  0  0  0  0  0  0  0
    0.6440   -1.3520    7.7830 C   0  0  0  0  0  0  0  0  0  0  0  0
    0.1666   -2.0144    8.4899 H   0  0  0  0  0  0  0  0  0  0  0  0
    0.0880   -1.1780    6.6020 N   0  0  0  0  0  0  0  0  0  0  0  0
    0.6440   -0.3710    5.7040 C   0  0  0  0  0  0  0  0  0  0  0  0
  1  8  1  0  0  0  0
  5  8  1  0  0  0  0
  5 12  1  0  0  0  0
  9 12  1  0  0  0  0
  9 13  1  0  0  0  0
 13 14  1  0  0  0  0
 14 15  1  0  0  0  0
 14 16  1  0  0  0  0
 14 17  1  0  0  0  0
 17 18  1  0  0  0  0
 17 19  1  0  0  0  0
 17 20  1  0  0  0  0
 19 28  1  0  0  0  0
 20 21  1  0  0  0  0
 20 22  1  0  0  0  0
 20 24  1  0  0  0  0
 22 23  1  0  0  0  0
 24 25  1  0  0  0  0
 24 26  1  0  0  0  0
 24 28  1  0  0  0  0
 26 27  1  0  0  0  0
 28 29  1  0  0  0  0
 28 30  1  0  0  0  0
 30 31  1  0  0  0  0
 30 43  1  0  0  0  0
 31 32  1  0  0  0  0
 31 33  2  0  0  0  0
 33 34  1  0  0  0  0
 35 36  1  0  0  0  0
 36 37  1  0  0  0  0
 36 38  1  0  0  0  0
 40 41  1  0  0  0  0
 34 43  2  0  0  0  0
 35 39  2  0  0  0  0
 40 42  2  0  0  0  0
 42 43  1  0  0  0  0
 34 35  1  0  0  0  0
 39 40  1  0  0  0  0
  1  4  2  0  0  0  0
  5  7  2  0  0  0  0
  9 10  2  0  0  0  0
  1  2  1  0  0  0  0
  1  3  1  0  0  0  0
  5  6  1  0  0  0  0
  9 11  1  0  0  0  0
M  END
$$$$
