7NA.****
  PyMOL2.4          3D                             0

 25 26  0  0  0  0  0  0  0  0999 V2000
    0.4020    1.3240    0.0120 C   0  0  0  0  0  0  0  0  0  0  0  0
    2.3530    2.9240    0.0430 C   0  0  0  0  0  0  0  0  0  0  0  0
   -1.8330    2.2130    0.0170 C   0  0  0  0  0  0  0  0  0  0  0  0
   -0.4890    2.4120    0.0250 C   0  0  0  0  0  0  0  0  0  0  0  0
    2.6320    0.4550    0.0060 C   0  0  0  0  0  0  0  0  0  0  0  0
    0.7730   -1.0810   -0.0230 C   0  0  0  0  0  0  0  0  0  0  0  0
   -2.1320   -1.5450   -0.0380 C   0  0  0  0  0  0  0  0  0  0  0  0
    1.7930    1.5250    0.0200 C   0  0  0  0  0  0  0  0  0  0  0  0
    2.1320   -0.8500   -0.0140 C   0  0  0  0  0  0  0  0  0  0  0  0
   -2.3860    0.9320   -0.0030 C   0  0  0  0  0  0  0  0  0  0  0  0
   -1.5590   -0.1940   -0.0180 C   0  0  0  0  0  0  0  0  0  0  0  0
   -0.1090    0.0040   -0.0100 C   0  0  0  0  0  0  0  0  0  0  0  0
   -2.3980   -2.1820    1.1200 O   0  5  0  0  0  0  0  0  0  0  0  0
   -2.3670   -2.0900   -1.0990 O   0  0  0  0  0  0  0  0  0  0  0  0
   -3.7330    0.7800   -0.0110 O   0  0  0  0  0  0  0  0  0  0  0  0
    2.9930   -1.9010   -0.0270 O   0  0  0  0  0  0  0  0  0  0  0  0
   -4.0380   -0.1300   -0.0270 H   0  0  0  0  0  0  0  0  0  0  0  0
   -2.4910    3.0690    0.0260 H   0  0  0  0  0  0  0  0  0  0  0  0
   -0.1000    3.4190    0.0420 H   0  0  0  0  0  0  0  0  0  0  0  0
    3.7000    0.6160    0.0100 H   0  0  0  0  0  0  0  0  0  0  0  0
    0.3930   -2.0920   -0.0400 H   0  0  0  0  0  0  0  0  0  0  0  0
    2.5770   -2.7660   -0.0420 H   0  0  0  0  0  0  0  0  0  0  0  0
    3.4420    2.8790    0.0460 H   0  0  0  0  0  0  0  0  0  0  0  0
    2.0080    3.4390    0.9400 H   0  0  0  0  0  0  0  0  0  0  0  0
    2.0140    3.4660   -0.8400 H   0  0  0  0  0  0  0  0  0  0  0  0
  1  4  1  0  0  0  0
  1  8  2  0  0  0  0
  1 12  1  0  0  0  0
  2  8  1  0  0  0  0
  2 23  1  0  0  0  0
  2 24  1  0  0  0  0
  2 25  1  0  0  0  0
  3  4  2  0  0  0  0
  3 10  1  0  0  0  0
  3 18  1  0  0  0  0
  4 19  1  0  0  0  0
  5  8  1  0  0  0  0
  5  9  2  0  0  0  0
  5 20  1  0  0  0  0
  6  9  1  0  0  0  0
  6 12  2  0  0  0  0
  6 21  1  0  0  0  0
  7 11  1  0  0  0  0
  7 13  1  0  0  0  0
  7 14  2  0  0  0  0
  9 16  1  0  0  0  0
 10 11  2  0  0  0  0
 10 15  1  0  0  0  0
 11 12  1  0  0  0  0
 15 17  1  0  0  0  0
 16 22  1  0  0  0  0
M  END
$$$$
