L04.****
  PyMOL2.5          3D                             0

 58 60  0  0  0  0  0  0  0  0999 V2000
   12.9455   -5.1317   -1.7925 C   0  0  0  0  0  0  0  0  0  0  0  0
   12.4365   -5.0832   -2.7552 H   0  0  0  0  0  0  0  0  0  0  0  0
   13.3384   -4.1711   -1.9518 N   0  0  0  0  0  0  0  0  0  0  0  0
   12.4494   -4.5289   -1.4999 O   0  0  0  0  0  0  0  0  0  0  0  0
   12.5999   -5.8440   -1.6457 C   0  0  0  0  0  0  0  0  0  0  0  0
   12.0910   -5.7955   -2.6084 H   0  0  0  0  0  0  0  0  0  0  0  0
   12.8000   -3.6291   -1.6399 C   0  0  0  0  0  0  0  0  0  0  0  0
   14.0425   -3.8826   -2.3095 C   0  0  0  0  0  0  0  0  0  0  0  0
   14.7589   -4.5770   -2.7232 H   0  0  0  0  0  0  0  0  0  0  0  0
   11.7948   -4.8775   -1.1713 C   0  0  0  0  0  0  0  0  0  0  0  0
   12.3037   -4.9260   -0.2087 H   0  0  0  0  0  0  0  0  0  0  0  0
   11.8886   -5.6989   -1.2623 C   0  0  0  0  0  0  0  0  0  0  0  0
   11.3796   -5.6504   -2.2250 H   0  0  0  0  0  0  0  0  0  0  0  0
   12.9049   -6.5852   -1.8442 O   0  0  0  0  0  0  0  0  0  0  0  0
   12.1617   -7.1728   -1.9990 H   0  0  0  0  0  0  0  0  0  0  0  0
   12.9472   -2.8110   -1.6765 N   0  0  0  0  0  0  0  0  0  0  0  0
   12.2779   -2.1608   -1.2899 H   0  0  0  0  0  0  0  0  0  0  0  0
   12.1089   -3.9008   -1.2882 O   0  0  0  0  0  0  0  0  0  0  0  0
   14.1897   -3.0646   -2.3461 C   0  0  0  0  0  0  0  0  0  0  0  0
   15.0950   -2.6967   -2.8062 H   0  0  0  0  0  0  0  0  0  0  0  0
   11.1606   -4.4932   -0.8167 C   0  0  0  0  0  0  0  0  0  0  0  0
   11.0977   -4.8667    0.2054 H   0  0  0  0  0  0  0  0  0  0  0  0
   10.2666   -4.7875   -1.3667 H   0  0  0  0  0  0  0  0  0  0  0  0
   11.3507   -6.2720   -1.0068 O   0  0  0  0  0  0  0  0  0  0  0  0
   10.4736   -5.8831   -1.0416 H   0  0  0  0  0  0  0  0  0  0  0  0
   13.6363   -2.5307   -2.0267 C   0  0  0  0  0  0  0  0  0  0  0  0
   11.1517   -3.6739   -0.7708 O   0  0  0  0  0  0  0  0  0  0  0  0
   13.7823   -1.7195   -2.0630 O   0  0  0  0  0  0  0  0  0  0  0  0
   10.4377   -3.5241   -0.3857 P   0  0  0  0  0  0  0  0  0  0  0  0
    9.7220   -3.3780    0.0000 O   0  0  0  0  0  0  0  0  0  0  0  0
   10.4953   -3.0743    0.2987 O   0  0  0  0  0  0  0  0  0  0  0  0
   10.2882   -4.3345   -0.3475 O   0  5  0  0  0  0  0  0  0  0  0  0
    8.9010   -3.3780    0.0000 P   0  0  0  0  0  0  0  0  0  0  0  0
    8.0730   -3.3740    0.0000 O   0  0  0  0  0  0  0  0  0  0  0  0
    8.9010   -2.5570    0.0000 O   0  0  0  0  0  0  0  0  0  0  0  0
    8.9839   -3.8037    0.7018 O   0  5  0  0  0  0  0  0  0  0  0  0
    7.3610   -3.7870    0.0000 C   0  0  0  0  0  0  0  0  0  0  0  0
    7.3610   -3.7870   -1.0900 H   0  0  0  0  0  0  0  0  0  0  0  0
    6.6940   -3.3020    0.0000 O   0  0  0  0  0  0  0  0  0  0  0  0
    7.1060   -4.5710    0.0000 C   0  0  0  0  0  0  0  0  0  0  0  0
    7.1060   -4.5710    1.0900 H   0  0  0  0  0  0  0  0  0  0  0  0
    7.5190   -5.2860    0.0000 O   0  0  0  0  0  0  0  0  0  0  0  0
    8.3504   -5.1410    0.4575 H   0  0  0  0  0  0  0  0  0  0  0  0
    6.2810   -4.5710    0.0000 C   0  0  0  0  0  0  0  0  0  0  0  0
    6.2810   -4.5710    1.0900 H   0  0  0  0  0  0  0  0  0  0  0  0
    5.8690   -5.2860    0.0000 O   0  0  0  0  0  0  0  0  0  0  0  0
    5.7241   -5.5375   -0.9151 H   0  0  0  0  0  0  0  0  0  0  0  0
    5.0160   -2.7760    0.0000 C   0  0  0  0  0  0  0  0  0  0  0  0
    5.4610   -2.3310    0.8900 H   0  0  0  0  0  0  0  0  0  0  0  0
    5.4610   -2.3310   -0.8900 H   0  0  0  0  0  0  0  0  0  0  0  0
    4.2190   -2.5630    0.0000 O   0  0  0  0  0  0  0  0  0  0  0  0
    3.8152   -2.9496    0.7804 H   0  0  0  0  0  0  0  0  0  0  0  0
    5.2290   -3.5730    0.0000 C   0  0  0  0  0  0  0  0  0  0  0  0
    5.2290   -3.5730   -1.0900 H   0  0  0  0  0  0  0  0  0  0  0  0
    4.6460   -4.1560    0.0000 O   0  0  0  0  0  0  0  0  0  0  0  0
    4.4407   -4.3613    0.9151 H   0  0  0  0  0  0  0  0  0  0  0  0
    6.0260   -3.7870    0.0000 C   0  0  0  0  0  0  0  0  0  0  0  0
    6.0260   -3.7870    1.0900 H   0  0  0  0  0  0  0  0  0  0  0  0
  1  2  1  0  0  0  0
  1  3  1  0  0  0  0
  1  4  1  0  0  0  0
  1  5  1  0  0  0  0
  3  7  1  0  0  0  0
  3  8  1  0  0  0  0
  4 10  1  0  0  0  0
  5  6  1  0  0  0  0
  5 12  1  0  0  0  0
  5 14  1  0  0  0  0
  7 16  1  0  0  0  0
  7 18  2  0  0  0  0
  8  9  1  0  0  0  0
  8 19  2  0  0  0  0
 10 11  1  0  0  0  0
 10 12  1  0  0  0  0
 10 21  1  0  0  0  0
 12 13  1  0  0  0  0
 12 24  1  0  0  0  0
 14 15  1  0  0  0  0
 16 17  1  0  0  0  0
 16 26  1  0  0  0  0
 19 20  1  0  0  0  0
 19 26  1  0  0  0  0
 21 22  1  0  0  0  0
 21 23  1  0  0  0  0
 21 27  1  0  0  0  0
 24 25  1  0  0  0  0
 26 28  2  0  0  0  0
 27 29  1  0  0  0  0
 29 30  1  0  0  0  0
 30 33  1  0  0  0  0
 33 34  1  0  0  0  0
 34 37  1  0  0  0  0
 37 38  1  0  0  0  0
 37 39  1  0  0  0  0
 37 40  1  0  0  0  0
 39 57  1  0  0  0  0
 40 41  1  0  0  0  0
 40 42  1  0  0  0  0
 40 44  1  0  0  0  0
 42 43  1  0  0  0  0
 44 45  1  0  0  0  0
 44 46  1  0  0  0  0
 44 57  1  0  0  0  0
 46 47  1  0  0  0  0
 48 49  1  0  0  0  0
 48 50  1  0  0  0  0
 48 51  1  0  0  0  0
 48 53  1  0  0  0  0
 51 52  1  0  0  0  0
 53 54  1  0  0  0  0
 53 55  1  0  0  0  0
 53 57  1  0  0  0  0
 55 56  1  0  0  0  0
 57 58  1  0  0  0  0
 33 35  1  0  0  0  0
 29 31  1  0  0  0  0
 33 36  2  0  0  0  0
 29 32  2  0  0  0  0
M  END
$$$$
