ChEBI.****
  PyMOL2.5          3D                             0

 40 42  0  0  0  0  0  0  0  0999 V2000
   10.1101   -9.0674   -2.7027 N   0  0  0  0  0  0  0  0  0  0  0  0
   10.1155   -8.3129   -2.6699 C   0  0  0  0  0  0  0  0  0  0  0  0
    9.0192   -9.2015   -2.2250 C   0  0  0  0  0  0  0  0  0  0  0  0
    8.8402   -9.0228   -3.2853 H   0  0  0  0  0  0  0  0  0  0  0  0
   10.6015   -9.2875   -3.2226 C   0  0  0  0  0  0  0  0  0  0  0  0
   10.8157  -10.3101   -3.4964 H   0  0  0  0  0  0  0  0  0  0  0  0
   10.6195   -8.0652   -3.1790 C   0  0  0  0  0  0  0  0  0  0  0  0
    9.7270   -7.8156   -2.2424 N   0  0  0  0  0  0  0  0  0  0  0  0
    8.4438   -8.7499   -2.0517 O   0  0  0  0  0  0  0  0  0  0  0  0
    8.7490   -9.9009   -2.2973 C   0  0  0  0  0  0  0  0  0  0  0  0
    8.5699   -9.7222   -3.3575 H   0  0  0  0  0  0  0  0  0  0  0  0
   10.9228   -8.6722   -3.5239 N   0  0  0  0  0  0  0  0  0  0  0  0
   10.7356   -7.3200   -3.2613 C   0  0  0  0  0  0  0  0  0  0  0  0
    9.8500   -7.0785   -2.3322 C   0  0  0  0  0  0  0  0  0  0  0  0
    9.3036   -6.3674   -1.7304 H   0  0  0  0  0  0  0  0  0  0  0  0
    7.8239   -9.1621   -2.0166 C   0  0  0  0  0  0  0  0  0  0  0  0
    8.0029   -9.3409   -0.9563 H   0  0  0  0  0  0  0  0  0  0  0  0
    8.0056   -9.8764   -2.1676 C   0  0  0  0  0  0  0  0  0  0  0  0
    7.8265   -9.6977   -3.2279 H   0  0  0  0  0  0  0  0  0  0  0  0
    8.9098  -10.4200   -1.7860 O   0  0  0  0  0  0  0  0  0  0  0  0
    8.3134  -11.1592   -1.9252 H   0  0  0  0  0  0  0  0  0  0  0  0
   10.3540   -6.8308   -2.8413 N   0  0  0  0  0  0  0  0  0  0  0  0
   11.2357   -7.0743   -3.7664 N   0  0  0  0  0  0  0  0  0  0  0  0
   11.3938   -6.0832   -3.8796 H   0  0  0  0  0  0  0  0  0  0  0  0
   11.7491   -7.7354   -4.3315 H   0  0  0  0  0  0  0  0  0  0  0  0
    7.1077   -9.0683   -2.2091 C   0  0  0  0  0  0  0  0  0  0  0  0
    6.5111   -9.6165   -1.4800 H   0  0  0  0  0  0  0  0  0  0  0  0
    6.9842   -9.5202   -3.1932 H   0  0  0  0  0  0  0  0  0  0  0  0
    7.6603  -10.3378   -1.6900 O   0  0  0  0  0  0  0  0  0  0  0  0
    8.1016  -10.2600   -0.8410 H   0  0  0  0  0  0  0  0  0  0  0  0
    6.8185   -8.3769   -2.2501 O   0  0  0  0  0  0  0  0  0  0  0  0
    6.1056   -8.5180   -2.4549 P   0  0  0  0  0  0  0  0  0  0  0  0
    5.4034   -8.6631   -2.6569 O   0  0  0  0  0  0  0  0  0  0  0  0
    6.1489   -8.1100   -1.8294 O   0  0  0  0  0  0  0  0  0  0  0  0
    6.2906   -9.1827   -2.1557 O   0  5  0  0  0  0  0  0  0  0  0  0
    4.9874   -8.9591   -3.2131 S   0  0  0  0  0  0  0  0  0  0  0  0
    4.6662   -8.2940   -3.3310 O   0  0  0  0  0  0  0  0  0  0  0  0
    5.3610   -7.6730   -3.5618 H   0  0  0  0  0  0  0  0  0  0  0  0
    4.5765   -9.2551   -3.7636 O   0  0  0  0  0  0  0  0  0  0  0  0
    5.3081   -9.6295   -3.0975 O   0  0  0  0  0  0  0  0  0  0  0  0
  1  2  1  0  0  0  0
  1  3  1  0  0  0  0
  1  5  1  0  0  0  0
  3  4  1  0  0  0  0
  3  9  1  0  0  0  0
  3 10  1  0  0  0  0
  5  6  1  0  0  0  0
  5 12  2  0  0  0  0
  7 12  1  0  0  0  0
  9 16  1  0  0  0  0
 10 11  1  0  0  0  0
 10 18  1  0  0  0  0
 10 20  1  0  0  0  0
 13 23  1  0  0  0  0
 14 15  1  0  0  0  0
 16 17  1  0  0  0  0
 16 18  1  0  0  0  0
 16 26  1  0  0  0  0
 18 19  1  0  0  0  0
 18 29  1  0  0  0  0
 20 21  1  0  0  0  0
 23 24  1  0  0  0  0
 23 25  1  0  0  0  0
 26 27  1  0  0  0  0
 26 28  1  0  0  0  0
 26 31  1  0  0  0  0
 29 30  1  0  0  0  0
 31 32  1  0  0  0  0
 32 33  1  0  0  0  0
 33 36  1  0  0  0  0
 36 37  1  0  0  0  0
 36 39  2  0  0  0  0
 36 40  2  0  0  0  0
 37 38  1  0  0  0  0
  2  7  2  0  0  0  0
 13 22  2  0  0  0  0
 32 34  2  0  0  0  0
  8 14  2  0  0  0  0
 14 22  1  0  0  0  0
  7 13  1  0  0  0  0
  2  8  1  0  0  0  0
 32 35  1  0  0  0  0
M  END
$$$$
