ChEBI.****
  PyMOL2.5          3D                             0

 58 60  0  0  0  0  0  0  0  0999 V2000
   23.1884   -9.9852   -3.0507 C   0  0  0  0  0  0  0  0  0  0  0  0
   22.4253  -10.4481   -3.6763 H   0  0  0  0  0  0  0  0  0  0  0  0
   23.9347   -9.9933   -3.4163 N   0  0  0  0  0  0  0  0  0  0  0  0
   22.6471   -9.4715   -2.7706 O   0  0  0  0  0  0  0  0  0  0  0  0
   23.2050  -10.6717   -2.5630 C   0  0  0  0  0  0  0  0  0  0  0  0
   22.4419  -11.1346   -3.1887 H   0  0  0  0  0  0  0  0  0  0  0  0
   24.4297  -10.6528   -3.3407 C   0  0  0  0  0  0  0  0  0  0  0  0
   24.1869   -9.3422   -3.8577 C   0  0  0  0  0  0  0  0  0  0  0  0
   23.5412   -8.4822   -3.9563 H   0  0  0  0  0  0  0  0  0  0  0  0
   22.3016   -9.8135   -2.0961 C   0  0  0  0  0  0  0  0  0  0  0  0
   23.0647   -9.3506   -1.4705 H   0  0  0  0  0  0  0  0  0  0  0  0
   22.6434  -10.5522   -1.9665 C   0  0  0  0  0  0  0  0  0  0  0  0
   21.8803  -11.0151   -2.5921 H   0  0  0  0  0  0  0  0  0  0  0  0
   23.9033  -10.9759   -2.2533 O   0  0  0  0  0  0  0  0  0  0  0  0
   24.4777  -11.1934   -2.9911 H   0  0  0  0  0  0  0  0  0  0  0  0
   25.1736  -10.6574   -3.7068 N   0  0  0  0  0  0  0  0  0  0  0  0
   25.7764  -11.4625   -3.6138 H   0  0  0  0  0  0  0  0  0  0  0  0
   24.1843  -11.3025   -2.9032 O   0  0  0  0  0  0  0  0  0  0  0  0
   24.9212   -9.3410   -4.2220 C   0  0  0  0  0  0  0  0  0  0  0  0
   25.2398   -8.4839   -4.7965 H   0  0  0  0  0  0  0  0  0  0  0  0
   21.5049   -9.8606   -1.8833 C   0  0  0  0  0  0  0  0  0  0  0  0
   20.9217   -9.8714   -2.8041 H   0  0  0  0  0  0  0  0  0  0  0  0
   21.2664   -8.9629   -1.3128 H   0  0  0  0  0  0  0  0  0  0  0  0
   22.6150  -10.6395   -1.1502 O   0  0  0  0  0  0  0  0  0  0  0  0
   21.7490  -10.3470   -0.8569 H   0  0  0  0  0  0  0  0  0  0  0  0
   25.4222  -10.0052   -4.1471 C   0  0  0  0  0  0  0  0  0  0  0  0
   21.2683  -10.5052   -1.4359 O   0  0  0  0  0  0  0  0  0  0  0  0
   26.1630  -10.0115   -4.5108 O   0  0  0  0  0  0  0  0  0  0  0  0
   20.5601  -10.7663   -1.1131 P   0  0  0  0  0  0  0  0  0  0  0  0
   19.9269  -11.0920   -1.5238 O   0  0  0  0  0  0  0  0  0  0  0  0
   20.6637  -11.5310   -0.8329 O   0  0  0  0  0  0  0  0  0  0  0  0
   20.1818  -10.3143   -0.5415 O   0  5  0  0  0  0  0  0  0  0  0  0
   19.5132  -10.9403   -2.2166 P   0  0  0  0  0  0  0  0  0  0  0  0
   19.3103  -11.7338   -2.2739 O   0  0  0  0  0  0  0  0  0  0  0  0
   19.0690  -10.4052   -1.7727 O   0  5  0  0  0  0  0  0  0  0  0  0
   18.8499  -11.2678   -2.5817 O   0  0  0  0  0  0  0  0  0  0  0  0
   18.3701  -11.9195   -2.7389 C   0  0  0  0  0  0  0  0  0  0  0  0
   17.7723  -11.6923   -1.8563 H   0  0  0  0  0  0  0  0  0  0  0  0
   18.3827  -12.7308   -2.5899 C   0  0  0  0  0  0  0  0  0  0  0  0
   17.3402  -12.6889   -2.2742 H   0  0  0  0  0  0  0  0  0  0  0  0
   19.1097  -13.0675   -2.3938 O   0  0  0  0  0  0  0  0  0  0  0  0
   19.4052  -12.6638   -1.5745 H   0  0  0  0  0  0  0  0  0  0  0  0
   17.9658  -12.9840   -3.9330 C   0  0  0  0  0  0  0  0  0  0  0  0
   19.0082  -13.0259   -4.2487 H   0  0  0  0  0  0  0  0  0  0  0  0
   17.3902  -13.4916   -4.2376 O   0  0  0  0  0  0  0  0  0  0  0  0
   17.6843  -14.3918   -4.0801 H   0  0  0  0  0  0  0  0  0  0  0  0
   18.1803  -13.2636   -3.1873 C   0  0  0  0  0  0  0  0  0  0  0  0
   19.2228  -13.3055   -3.5030 H   0  0  0  0  0  0  0  0  0  0  0  0
   17.9532  -12.1727   -4.0821 C   0  0  0  0  0  0  0  0  0  0  0  0
   16.9108  -12.1308   -3.7664 H   0  0  0  0  0  0  0  0  0  0  0  0
   18.0844  -12.0892   -4.8925 C   0  0  0  0  0  0  0  0  0  0  0  0
   19.0748  -11.6485   -5.0069 H   0  0  0  0  0  0  0  0  0  0  0  0
   17.3319  -11.3930   -5.2627 H   0  0  0  0  0  0  0  0  0  0  0  0
   18.0598  -12.7498   -5.3850 O   0  0  0  0  0  0  0  0  0  0  0  0
   17.8673  -13.5138   -4.8365 H   0  0  0  0  0  0  0  0  0  0  0  0
   18.1553  -11.6410   -3.4854 O   0  0  0  0  0  0  0  0  0  0  0  0
   17.7371  -13.8629   -2.8337 O   0  0  0  0  0  0  0  0  0  0  0  0
   18.1689  -14.0948   -2.0082 H   0  0  0  0  0  0  0  0  0  0  0  0
  1  2  1  0  0  0  0
  1  3  1  0  0  0  0
  1  4  1  0  0  0  0
  1  5  1  0  0  0  0
  3  7  1  0  0  0  0
  3  8  1  0  0  0  0
  4 10  1  0  0  0  0
  5  6  1  0  0  0  0
  5 12  1  0  0  0  0
  5 14  1  0  0  0  0
  7 16  1  0  0  0  0
  7 18  2  0  0  0  0
  8  9  1  0  0  0  0
  8 19  2  0  0  0  0
 10 11  1  0  0  0  0
 10 12  1  0  0  0  0
 10 21  1  0  0  0  0
 12 13  1  0  0  0  0
 12 24  1  0  0  0  0
 14 15  1  0  0  0  0
 16 17  1  0  0  0  0
 16 26  1  0  0  0  0
 19 20  1  0  0  0  0
 19 26  1  0  0  0  0
 21 22  1  0  0  0  0
 21 23  1  0  0  0  0
 21 27  1  0  0  0  0
 24 25  1  0  0  0  0
 26 28  2  0  0  0  0
 27 29  1  0  0  0  0
 29 30  1  0  0  0  0
 30 33  1  0  0  0  0
 33 36  1  0  0  0  0
 36 37  1  0  0  0  0
 37 38  1  0  0  0  0
 37 39  1  0  0  0  0
 37 56  1  0  0  0  0
 39 40  1  0  0  0  0
 39 41  1  0  0  0  0
 39 47  1  0  0  0  0
 41 42  1  0  0  0  0
 43 44  1  0  0  0  0
 43 45  1  0  0  0  0
 43 47  1  0  0  0  0
 43 49  1  0  0  0  0
 45 46  1  0  0  0  0
 47 48  1  0  0  0  0
 47 57  1  0  0  0  0
 49 50  1  0  0  0  0
 49 51  1  0  0  0  0
 49 56  1  0  0  0  0
 51 52  1  0  0  0  0
 51 53  1  0  0  0  0
 51 54  1  0  0  0  0
 54 55  1  0  0  0  0
 57 58  1  0  0  0  0
 33 34  1  0  0  0  0
 29 31  1  0  0  0  0
 33 35  2  0  0  0  0
 29 32  2  0  0  0  0
M  END
$$$$
