RIB.****
     RDKit          3D

 20 20  0  0  0  0  0  0  0  0999 V2000
   -0.7740   -0.3720    3.1020 O   0  0  0  0  0  0  0  0  0  0  0  0
   -1.6390   -0.3500    2.6860 H   0  0  0  0  0  0  0  0  0  0  0  0
    0.1240    0.3640    2.2710 C   0  0  0  0  0  0  0  0  0  0  0  0
    1.1180    0.3590    2.7170 H   0  0  0  0  0  0  0  0  0  0  0  0
   -0.2270    1.3920    2.1780 H   0  0  0  0  0  0  0  0  0  0  0  0
    0.1840   -0.2810    0.8850 C   0  0  1  0  0  0  0  0  0  0  0  0
    0.5240   -1.3100    0.9990 H   0  0  0  0  0  0  0  0  0  0  0  0
   -1.1100   -0.2450    0.2760 O   0  0  0  0  0  0  0  0  0  0  0  0
    1.1510    0.5110   -0.0200 C   0  0  1  0  0  0  0  0  0  0  0  0
    1.3700    1.5140    0.3470 H   0  0  0  0  0  0  0  0  0  0  0  0
    2.4190   -0.1410   -0.1160 O   0  0  0  0  0  0  0  0  0  0  0  0
    2.2640   -1.0320   -0.4380 H   0  0  0  0  0  0  0  0  0  0  0  0
    0.4120    0.4870   -1.3870 C   0  0  1  0  0  0  0  0  0  0  0  0
    0.6990    1.2870   -2.0690 H   0  0  0  0  0  0  0  0  0  0  0  0
    0.6870   -0.7200   -2.1000 O   0  0  0  0  0  0  0  0  0  0  0  0
    0.1570   -0.7110   -2.9000 H   0  0  0  0  0  0  0  0  0  0  0  0
   -1.0650    0.5390   -0.9250 C   0  0  1  0  0  0  0  0  0  0  0  0
   -1.4060    1.5610   -0.7590 H   0  0  0  0  0  0  0  0  0  0  0  0
   -1.9180   -0.0280   -1.9210 O   0  0  0  0  0  0  0  0  0  0  0  0
   -1.6260   -0.9290   -2.0740 H   0  0  0  0  0  0  0  0  0  0  0  0
  1  2  1  0
  1  3  1  0
  3  4  1  0
  3  5  1  0
  3  6  1  0
  6  7  1  1
  6  8  1  0
  6  9  1  0
  8 17  1  0
  9 10  1  1
  9 11  1  0
  9 13  1  0
 11 12  1  0
 13 14  1  6
 13 15  1  0
 13 17  1  0
 15 16  1  0
 17 18  1  1
 17 19  1  0
 19 20  1  0
M  END
