
     RDKit          3D

  8  7  0  0  0  0  0  0  0  0999 V2000
    0.6956   -0.2174   -0.0129 C   0  0  0  0  0  0  0  0  0  0  0  0
    0.9174   -1.0382    0.6775 H   0  0  0  0  0  0  0  0  0  0  0  0
   -0.8046    0.0176   -0.0569 C   0  0  0  0  0  0  0  0  0  0  0  0
   -1.0643    0.8143   -0.7622 H   0  0  0  0  0  0  0  0  0  0  0  0
   -1.3189   -0.8944   -0.3768 H   0  0  0  0  0  0  0  0  0  0  0  0
   -1.1952    0.2954    0.9279 H   0  0  0  0  0  0  0  0  0  0  0  0
    1.7223    1.5445    0.6076 I   0  0  0  0  0  0  0  0  0  0  0  0
    1.0477   -0.5218   -1.0042 H   0  0  0  0  0  0  0  0  0  0  0  0
  2  1  1  0
  3  1  1  0
  4  3  1  0
  5  3  1  0
  6  3  1  0
  7  1  1  0
  8  1  1  0
M  END
$$$$
